Circuit: * C:\Users\banru\Documents\workspace\Contactless\LTspice\SoundSim.asc

